species:        p
tracer:         f
extension:		t88
category:       individual
datatype:       pet_image
scanner:        ecat
acquisition:    wobbled
reconstruction: filtered_backprojection
recfilter:      ramp
mskimg:         control_image
imgfilter:      butterworth 0.7 5
smg_mode:       single
processing:     none
