species:        p
tracer:         fd
extension:      img
imgfilter:      none
mskimg:         specified p2933mask.img
mskpct:         10

