species:        p
tracer:         cmrfdg
extension:      v
mskimg:         specified p5356ho1_g2_42msk.v
mskpct:         1
imgfilter:      none
processing:     cmrglucose
