#datapath: 	/data/jsp/monkey/flow/ketamine/stretch/m622/baseline
extension: 	img
species: 	m
tracer: 	all
imgmode: 	standard
scanner: 	ecat
acquisition: 	wobble
reconstruction: filtered_backprojection
recfilter: 	ramp
processing:	none
smg_mode: 	single # paired
smg_norm: 	1000
atlas:		dh68
smg_divisor:	local	
smg_included:	sampled	
