#datapath:		/home/petsun19/tom/src/imgmean/Test
species:        p
tracer:         ho
extension:		img
category:       pet	#individual
datatype:       pet_image
scanner:        ecat
acquisition:    3d
reconstruction: 3d_filtered_backprojection
recfilter:      ramp
imglist_mode:	standard
#imgfilter:      gauss 0.2

