species:        p
tracer:         ho
category:       individual
datatype:       pet_image
atlfile:				global.atl
