species:		p
tracer:			cmrfdg
suffix:                 _tst_g6
extension:		v
category:		pet		# individual
datatype:		pet_image
mskimg:		 specified p5272ho1_g2_42msk.v
mskpct:			1
scanner:		961
acquisition:	stationary
reconstruction:	filtered_backprojection
recfilter:		ramp
imgfilter:		none	# butterworth 0.5 5
processing:		cmrglucose	# (none, cbf, cbv, oef, cmro2, decay-corrected, uncorrected)
halflife:		0.0
voi_order:              1
