species:        p
tracer:         ho
scanner:        961
extension:      v
processing:     none
imgfilter:		gauss 0.3
