species:        p
tracer:         ho
datatype:       pet_image
scanner:        pett6
acquisition:    low_resolution
reconstruction: filtered_backprojection
recfilter:      filterg
mskimg:         control_image
mskpct:         40
mskfilter:      none
imgfilter:      none
smg_norm:       1000
smg_mode:       single
smg_divisor:    local
smg_included:   all
processing:     none
